
     RDKit          3D

 41 44  0  0  0  0  0  0  0  0999 V2000
    5.6822   -0.4842    1.1943 C   0  0  0  0  0  0  0  0  0  0  0  0
    4.8565   -0.4143   -0.0569 C   0  0  0  0  0  0  0  0  0  0  0  0
    3.5032   -0.0295   -0.0976 C   0  0  0  0  0  0  0  0  0  0  0  0
    2.7629    0.0281   -1.2777 C   0  0  0  0  0  0  0  0  0  0  0  0
    3.3862   -0.3112   -2.4926 C   0  0  0  0  0  0  0  0  0  0  0  0
    4.7284   -0.6971   -2.4859 C   0  0  0  0  0  0  0  0  0  0  0  0
    5.4451   -0.7464   -1.2918 C   0  0  0  0  0  0  0  0  0  0  0  0
    1.4477    0.4531   -0.9347 C   0  0  0  0  0  0  0  0  0  0  0  0
    1.3935    0.6463    0.4343 C   0  0  0  0  0  0  0  0  0  0  0  0
    2.6517    0.3526    0.9137 N   0  0  0  0  0  0  0  0  0  0  0  0
    0.3354    1.0644    1.3246 C   0  0  0  0  0  0  0  0  0  0  0  0
    0.5059    1.1789    2.5350 O   0  0  0  0  0  0  0  0  0  0  0  0
   -0.8758    1.3063    0.7296 N   0  0  0  0  0  0  0  0  0  0  0  0
   -2.0539    1.6865    1.5075 C   0  0  0  0  0  0  0  0  0  0  0  0
   -2.6915    0.4955    2.2264 C   0  0  0  0  0  0  0  0  0  0  0  0
   -3.4581   -0.3863    1.2768 C   0  0  0  0  0  0  0  0  0  0  0  0
   -3.6301   -1.7502    1.5376 C   0  0  0  0  0  0  0  0  0  0  0  0
   -4.4190   -2.5306    0.6915 C   0  0  0  0  0  0  0  0  0  0  0  0
   -5.0541   -1.9503   -0.4065 C   0  0  0  0  0  0  0  0  0  0  0  0
   -4.8975   -0.5883   -0.6658 C   0  0  0  0  0  0  0  0  0  0  0  0
   -4.0930    0.1854    0.1697 C   0  0  0  0  0  0  0  0  0  0  0  0
   -3.9354    1.5483   -0.0945 N   0  0  0  0  0  0  0  0  0  0  0  0
   -3.0497    2.3664    0.5612 C   0  0  0  0  0  0  0  0  0  0  0  0
   -2.9776    3.5577    0.2602 O   0  0  0  0  0  0  0  0  0  0  0  0
    6.5286    0.2065    1.1240 H   0  0  0  0  0  0  0  0  0  0  0  0
    6.0628   -1.5008    1.3366 H   0  0  0  0  0  0  0  0  0  0  0  0
    5.1015   -0.2161    2.0814 H   0  0  0  0  0  0  0  0  0  0  0  0
    2.8335   -0.2736   -3.4264 H   0  0  0  0  0  0  0  0  0  0  0  0
    5.2172   -0.9600   -3.4206 H   0  0  0  0  0  0  0  0  0  0  0  0
    6.4904   -1.0504   -1.3217 H   0  0  0  0  0  0  0  0  0  0  0  0
    0.6381    0.5980   -1.6366 H   0  0  0  0  0  0  0  0  0  0  0  0
    2.8990    0.4161    1.8922 H   0  0  0  0  0  0  0  0  0  0  0  0
   -0.9924    1.1239   -0.2565 H   0  0  0  0  0  0  0  0  0  0  0  0
   -1.7426    2.4218    2.2594 H   0  0  0  0  0  0  0  0  0  0  0  0
   -1.9272   -0.0897    2.7508 H   0  0  0  0  0  0  0  0  0  0  0  0
   -3.4009    0.8618    2.9796 H   0  0  0  0  0  0  0  0  0  0  0  0
   -3.1588   -2.2100    2.4037 H   0  0  0  0  0  0  0  0  0  0  0  0
   -4.5475   -3.5911    0.8953 H   0  0  0  0  0  0  0  0  0  0  0  0
   -5.6745   -2.5603   -1.0585 H   0  0  0  0  0  0  0  0  0  0  0  0
   -5.3998   -0.1496   -1.5233 H   0  0  0  0  0  0  0  0  0  0  0  0
   -4.4898    1.9924   -0.8156 H   0  0  0  0  0  0  0  0  0  0  0  0
  1  2  1  0
  2  3  2  0
  3  4  1  0
  4  5  2  0
  5  6  1  0
  6  7  2  0
  4  8  1  0
  8  9  2  0
  9 10  1  0
  9 11  1  0
 11 12  2  0
 11 13  1  0
 13 14  1  0
 14 15  1  0
 15 16  1  0
 16 17  2  0
 17 18  1  0
 18 19  2  0
 19 20  1  0
 20 21  2  0
 21 22  1  0
 22 23  1  0
 23 24  2  0
  7  2  1  0
 10  3  1  0
 23 14  1  0
 21 16  1  0
  1 25  1  0
  1 26  1  0
  1 27  1  0
  5 28  1  0
  6 29  1  0
  7 30  1  0
  8 31  1  0
 10 32  1  0
 13 33  1  0
 14 34  1  0
 15 35  1  0
 15 36  1  0
 17 37  1  0
 18 38  1  0
 19 39  1  0
 20 40  1  0
 22 41  1  0
M  END
